$$------------------------------------------------------------------------------$
$$                                                                              $
$$ NASTRAN Input Deck Generated by HyperMesh Version  :2023.1.0.22
$$ Generated using HyperMesh-Nastran Template Version : 2023.1.0.22-53972
$$                                                                              $
$$   Template:  NastranMSC general                                              $
$$                                                                              $
$$------------------------------------------------------------------------------$
$$------------------------------------------------------------------------------$
$$                      Executive Control Cards                                 $
$$------------------------------------------------------------------------------$
SOL 101
CEND
$$------------------------------------------------------------------------------$
$$                      Case Control Cards                                      $
$$------------------------------------------------------------------------------$
  ANALYSIS = STATICS
  DISPLACEMENT = ALL
  STRAIN = ALL
  STRESS = ALL

$
$HMNAME LOADSTEP               1"case_1"
SUBCASE       1
  ANALYSIS = STATICS
  LABEL = case_1
  LOAD =        1
  SPC =        2
  SUBTITLE = case_1
$$------------------------------------------------------------------------------$
$$                      Bulk Data Cards                                         $
$$------------------------------------------------------------------------------$
BEGIN BULK
PARAM,POST,-2      
$$
$$  GRID Data
$$
GRID           1               0       0       0
GRID           2            1000       0       0
$$
$$------------------------------------------------------------------------------$
$$             Group Definitions                                                $
$$------------------------------------------------------------------------------$
$$
$$------------------------------------------------------------------------------$
$$    HyperMesh name information for generic property collectors                $
$$------------------------------------------------------------------------------$
$$
$$------------------------------------------------------------------------------$
$$    Property Definition for 1-D Elements                                      $
$$------------------------------------------------------------------------------$
$$
$$  CROD Elements
$$
$HMCOMP ID                     1
CROD           1       1       1       2
$
$$
$$------------------------------------------------------------------------------$
$$    HyperMesh name and color information for generic components               $
$$------------------------------------------------------------------------------$
$HMNAME COMP                   1"auto1" 
$HWCOLOR COMP                  1      43
$

$

$
$$
$$------------------------------------------------------------------------------$
$$    Property Definition for Surface and Volume Elements                       $
$$------------------------------------------------------------------------------$
$$
$$  PROD Data
$
$HMNAME PROP                   1"Rod_Property" 3
$HWCOLOR PROP                  1      59
PROD           1       1     350
$$--------------------------------------------------------------
$$ HYPERMESH TAGS 
$$--------------------------------------------------------------
$$BEGIN TAGS
$$END TAGS
$$
$$------------------------------------------------------------------------------$
$$     HyperMesh name information for generic materials                         $
$$------------------------------------------------------------------------------$
$$
$$------------------------------------------------------------------------------$
$$                      Material Definition Cards                               $
$$------------------------------------------------------------------------------$
$$
$$  MAT1 Data
$
$HMNAME MAT                    1"Steel" "MAT1"
$HWCOLOR MAT                   1      43
MAT1           1  210000     0.3
$$
$$------------------------------------------------------------------------------$
$$        Loads and Boundary Conditions                                         $
$$------------------------------------------------------------------------------$
$$
$$HyperMesh name and color information for generic loadcollectors
$$
$HMNAME LOADCOL                1"xForce"
$HWCOLOR LOADCOL               1      11
$
$HMNAME LOADCOL                2"SPC"
$HWCOLOR LOADCOL               2      10
$
$$
$$  SPC Data
$$
SPC            2       1   12345       0
SPC            2       2    2345       0
$$
$$  FORCE Data
$$
FORCE          1       2       0   40000       1       0       0
ENDDATA
